Circuit: * C:\Users\Dmitr\OneDrive\Desktop\eib-drumcomputer\eib-drumcomputer\ltspice\Platine_3\cymbal_2\cymbal_2.asc

Warning: Multiple definitions of model "2scr375p" Type: BJT
Warning: Multiple definitions of model "bc857b" Type: BJT
Warning: Multiple definitions of model "bc847c" Type: BJT
Warning: Multiple definitions of model "bc847b" Type: BJT
WARNING: Node OUTPUT is floating.

WARNING: Less than two connections to node output.  This node is used by r5.
Direct Newton iteration for .op point succeeded.

Date: Wed May 17 10:32:19 2023
Total elapsed time: 2.546 seconds.

tnom = 27
temp = 27
method = modified trap
totiter = 126916
traniter = 126900
tranpoints = 62800
accept = 45254
rejected = 17546
matrix size = 18
fillins = 1
solver = Normal
Avg thread counts: 1.0/1.0/1.0/1.0
Matrix Compiler1: 906 bytes object code size  0.8/0.7/[0.6]
Matrix Compiler2: 1.29 KB object code size  0.7/1.1/[0.7]

