Circuit: * Z:\home\marian\uni\4.ss2023\eib-drumcomputer\ltspice\snare\snare.asc

Limiting rise time of source v2 to 0.001
Limiting fall time of source v2 to 0.001
WARNING: Less than two connections to node OUT1.  This node is used by R19.
Direct Newton iteration for .op point succeeded.

Date: Thu Apr 27 15:43:18 2023
Total elapsed time: 0.211 seconds.

tnom = 27
temp = 27
method = modified trap
totiter = 7424
traniter = 7414
tranpoints = 3070
accept = 2293
rejected = 777
matrix size = 22
fillins = 3
solver = Normal
Matrix Compiler1: 1.53 KB object code size  0.9/0.9/[0.5]
Matrix Compiler2: 1.84 KB object code size  0.6/1.0/[0.5]

