Circuit: * Z:\home\marian\uni\4.ss2023\eib-drumcomputer\ltspice\snare\snare2.asc

WARNING: Node OUT is floating.

WARNING: Less than two connections to node OUT.  This node is used by R7.
Direct Newton iteration for .op point succeeded.

Date: Thu Apr 27 15:24:33 2023
Total elapsed time: 0.201 seconds.

tnom = 27
temp = 27
method = modified trap
totiter = 5975
traniter = 5960
tranpoints = 2419
accept = 2080
rejected = 339
matrix size = 12
fillins = 0
solver = Normal
Matrix Compiler1: 518 bytes object code size  0.3/0.2/[0.2]
Matrix Compiler2: 954 bytes object code size  0.2/0.3/[0.2]

