Circuit: * Z:\home\marian\uni\4.ss2023\eib-drumcomputer\ltspice\snare\snare.asc

Limiting rise time of source v2 to 0.003
Limiting fall time of source v2 to 0.003
Direct Newton iteration for .op point succeeded.

Date: Wed Apr 26 21:43:13 2023
Total elapsed time: 0.151 seconds.

tnom = 27
temp = 27
method = modified trap
totiter = 3156
traniter = 3146
tranpoints = 1389
accept = 1314
rejected = 75
matrix size = 20
fillins = 5
solver = Normal
Matrix Compiler1: 1.51 KB object code size  0.3/0.2/[0.2]
Matrix Compiler2: off  [0.2]/0.3/0.3

