Circuit: * Z:\home\marian\uni\4.ss2023\eib-drumcomputer\ltspice\snare\snare.asc

Limiting rise time of source v2 to 0.001
Limiting fall time of source v2 to 0.001
WARNING: Less than two connections to node OUT1.  This node is used by R19.
Direct Newton iteration for .op point succeeded.

Date: Thu Apr 27 15:10:09 2023
Total elapsed time: 0.177 seconds.

tnom = 27
temp = 27
method = modified trap
totiter = 3766
traniter = 3756
tranpoints = 1574
accept = 1409
rejected = 165
matrix size = 22
fillins = 3
solver = Normal
Matrix Compiler1: 1.53 KB object code size  0.3/0.3/[0.2]
Matrix Compiler2: off  [0.2]/0.3/0.3

