Circuit: * C:\Users\Dmitr\OneDrive\Desktop\eib-drumcomputer\eib-drumcomputer\ltspice\Platine_1\bass_drum\bass_drum.asc

Warning: Multiple definitions of model "2scr375p" Type: BJT
Warning: Multiple definitions of model "bc857b" Type: BJT
Warning: Multiple definitions of model "bc847c" Type: BJT
Warning: Multiple definitions of model "bc847b" Type: BJT
WARNING: Node N004 is floating.

WARNING: Less than two connections to node output.  This node is used by r15.
Direct Newton iteration for .op point succeeded.

Date: Sun Sep 17 12:57:55 2023
Total elapsed time: 0.189 seconds.

tnom = 27
temp = 27
method = trap
totiter = 14
traniter = 0
tranpoints = 0
accept = 0
rejected = 0
matrix size = 20
fillins = 2
solver = Normal
Avg thread counts: 4.0/0.0/4.0/4.0
Matrix Compiler1:      75 opcodes
Matrix Compiler2: 1.57 KB object code size
