Circuit: * C:\Users\Dmitr\OneDrive\Desktop\eib-drumcomputer\eib-drumcomputer\ltspice\Platine_3\snare_drum_noise\snare_drum_noise.asc

Warning: Multiple definitions of model "2scr375p" Type: BJT
Warning: Multiple definitions of model "bc857b" Type: BJT
Warning: Multiple definitions of model "bc847c" Type: BJT
Warning: Multiple definitions of model "bc847b" Type: BJT
WARNING: Node OUTPUT is floating.

WARNING: Less than two connections to node output.  This node is used by r5.
Direct Newton iteration for .op point succeeded.

Date: Thu Jun 22 11:46:45 2023
Total elapsed time: 2.194 seconds.

tnom = 27
temp = 27
method = modified trap
totiter = 101015
traniter = 100999
tranpoints = 49711
accept = 34287
rejected = 15424
matrix size = 20
fillins = 0
solver = Normal
Avg thread counts: 1.0/1.0/1.0/1.0
Matrix Compiler1: 1006 bytes object code size  1.3/0.8/[0.6]
Matrix Compiler2: 1.45 KB object code size  0.7/1.2/[0.6]

