Circuit: * C:\Users\Dmitr\OneDrive\Desktop\eib-drumcomputer\eib-drumcomputer\ltspice\Platine_3\snare_drum_noise\snare_drum_noise.asc

Warning: Multiple definitions of model "2scr375p" Type: BJT
Warning: Multiple definitions of model "bc857b" Type: BJT
Warning: Multiple definitions of model "bc847c" Type: BJT
Warning: Multiple definitions of model "bc847b" Type: BJT
WARNING: Node OUTPUT is floating.

WARNING: Less than two connections to node output.  This node is used by r5.
Direct Newton iteration for .op point succeeded.

Date: Thu Jun 22 10:47:39 2023
Total elapsed time: 1.955 seconds.

tnom = 27
temp = 27
method = modified trap
totiter = 102651
traniter = 102635
tranpoints = 50469
accept = 34838
rejected = 15631
matrix size = 20
fillins = 0
solver = Normal
Avg thread counts: 1.0/1.0/1.0/1.0
Matrix Compiler1: 1006 bytes object code size  0.7/0.7/[0.6]
Matrix Compiler2: off  [0.5]/1.1/0.7

