Circuit: * C:\Users\Dmitr\OneDrive\Desktop\eib-drumcomputer\eib-drumcomputer\ltspice\Platine_3\snare_drum_noise\snare_drum_noise.asc

Warning: Multiple definitions of model "2scr375p" Type: BJT
Warning: Multiple definitions of model "bc857b" Type: BJT
Warning: Multiple definitions of model "bc847c" Type: BJT
Warning: Multiple definitions of model "bc847b" Type: BJT
WARNING: Node OUTPUT is floating.

WARNING: Less than two connections to node output.  This node is used by r5.
Direct Newton iteration for .op point succeeded.

Date: Wed Jun 28 13:07:54 2023
Total elapsed time: 2.736 seconds.

tnom = 27
temp = 27
method = modified trap
totiter = 97484
traniter = 97468
tranpoints = 44514
accept = 30459
rejected = 14055
matrix size = 20
fillins = 0
solver = Normal
Avg thread counts: 1.0/1.0/1.0/1.0
Matrix Compiler1: 1006 bytes object code size  0.9/0.8/[0.7]
Matrix Compiler2: 1.45 KB object code size  0.6/1.1/[0.5]

