Circuit: * C:\Users\Dmitr\OneDrive\Desktop\eib-drumcomputer\eib-drumcomputer\ltspice\Platine_3\snare_drum_noise\snare_drum_noise.asc

Warning: Multiple definitions of model "2scr375p" Type: BJT
Warning: Multiple definitions of model "bc857b" Type: BJT
Warning: Multiple definitions of model "bc847c" Type: BJT
Warning: Multiple definitions of model "bc847b" Type: BJT
WARNING: Node OUTPUT is floating.

WARNING: Less than two connections to node output.  This node is used by r5.
Direct Newton iteration for .op point succeeded.

Date: Wed Jun 14 11:14:53 2023
Total elapsed time: 1.877 seconds.

tnom = 27
temp = 27
method = modified trap
totiter = 101571
traniter = 101555
tranpoints = 49885
accept = 34414
rejected = 15471
matrix size = 18
fillins = 1
solver = Normal
Avg thread counts: 1.0/1.0/1.0/1.0
Matrix Compiler1: 906 bytes object code size  0.8/0.8/[0.5]
Matrix Compiler2: 1.29 KB object code size  0.6/0.8/[0.6]

