Circuit: * C:\Users\Dmitr\OneDrive\Desktop\eib-drumcomputer\eib-drumcomputer\ltspice\Finales_Layout\Noise_Gen\Draft1.asc

.OP point found by inspection.

Date: Fri Jun 23 13:31:25 2023
Total elapsed time: 0.035 seconds.

tnom = 27
temp = 27
method = trap
totiter = 0
traniter = 0
tranpoints = 0
accept = 0
rejected = 0
matrix size = 5
fillins = 1
solver = Normal
Avg thread counts: 4.0/0.0/0.0/3.6
Matrix Compiler1:       8 opcodes
Matrix Compiler2:      25 opcodes
