Circuit: * C:\Users\Dmitr\OneDrive\Desktop\eib-drumcomputer\eib-drumcomputer\ltspice\Finales_Layout\Noise_Gen\Transistor_Noise.asc

Warning: Multiple definitions of model "2scr375p" Type: BJT
Warning: Multiple definitions of model "bc857b" Type: BJT
Warning: Multiple definitions of model "bc847c" Type: BJT
Warning: Multiple definitions of model "bc847b" Type: BJT
WARNING: Less than two connections to node x.  This node is used by q1.
WARNING: Less than two connections to node out.  This node is used by r5.
Direct Newton iteration for .op point succeeded.

Date: Sat Jun  3 12:22:01 2023
Total elapsed time: 0.346 seconds.

tnom = 27
temp = 27
method = modified trap
totiter = 2136
traniter = 2088
tranpoints = 1045
accept = 1045
rejected = 0
matrix size = 77
fillins = 125
solver = Normal
Avg thread counts: 1.1/1.3/1.3/1.1
Matrix Compiler1: 14.49 KB object code size  8.5/6.2/[3.2]
Matrix Compiler2: 8.83 KB object code size  3.3/3.8/[2.1]

