Circuit: * C:\Users\Dmitr\OneDrive\Desktop\eib-drumcomputer\eib-drumcomputer\ltspice\Finales_Layout\Platine_1\Platine_1.asc

Warning: Multiple definitions of model "2scr375p" Type: BJT
Warning: Multiple definitions of model "bc857b" Type: BJT
Warning: Multiple definitions of model "bc847c" Type: BJT
Warning: Multiple definitions of model "bc847b" Type: BJT
WARNING: Less than two connections to node mic_cont.  This node is used by r21.
WARNING: Less than two connections to node output.  This node is used by r23.
Direct Newton iteration failed to find .op point.  (Use ".option noopiter" to skip.)
Starting Gmin stepping
Gmin = 10
Gmin = 1.07374
Gmin = 0.115292
Gmin = 0.0123794
Gmin = 0.00132923
vernier = 0.5
vernier = 0.25
vernier = 0.125
vernier = 0.0625
Gmin = 0.00100083
vernier = 0.03125
vernier = 0.015625
vernier = 0.0078125
vernier = 0.00390625
vernier = 0.00195312
Gmin = 0.00100083
vernier = 0.000976562
vernier = 0.000488281
Gmin = 0
Gmin stepping failed

Starting source stepping with srcstepmethod=0
Source Step = 3.0303%
Source Step = 33.3333%
Source Step = 51.8939%
Source Step = 52.4621%
Source Step = 52.9356%
Source Step = 53.4091%
Source Step = 53.8826%
Source Step = 54.3561%
vernier = 0.0234375
Source Step = 54.9953%
Source Step = 55.7055%
Source Step = 56.4157%
Source Step = 57.1259%
Source Step = 57.8362%
vernier = 0.0351562
Source Step = 58.7595%
Source Step = 59.8248%
Source Step = 60.8902%
Source Step = 61.9555%
Source Step = 63.0208%
vernier = 0.0527344
Source Step = 64.3525%
Source Step = 65.9505%
Source Step = 67.5485%
Source Step = 69.1465%
Source Step = 70.7446%
vernier = 0.0791016
Source Step = 72.6622%
Source Step = 75.0592%
Source Step = 77.4562%
Source Step = 79.8532%
Source Step = 82.2502%
vernier = 0.118652
Source Step = 85.0068%
Source Step = 88.6023%
Source Step = 92.1979%
Source Step = 95.7934%
Source Step = 99.3889%
Source stepping succeeded in finding the operating point.


Date: Tue Jun  6 18:59:39 2023
Total elapsed time: 1.314 seconds.

tnom = 27
temp = 27
method = modified trap
totiter = 11508
traniter = 8377
tranpoints = 3217
accept = 2630
rejected = 587
matrix size = 117
fillins = 82
solver = Normal
Avg thread counts: 1.0/1.1/1.1/1.0
Matrix Compiler1: 10.27 KB object code size  9.0/4.6/[2.7]
Matrix Compiler2: 11.08 KB object code size  3.6/3.9/[3.2]

