Circuit: * C:\Users\Dmitr\OneDrive\Desktop\eib-drumcomputer\eib-drumcomputer\ltspice\Finales_Layout\Platine_1\Platine_1.asc

Warning: Multiple definitions of model "2scr375p" Type: BJT
Warning: Multiple definitions of model "bc857b" Type: BJT
Warning: Multiple definitions of model "bc847c" Type: BJT
Warning: Multiple definitions of model "bc847b" Type: BJT
WARNING: Less than two connections to node mic_cont.  This node is used by r21.
WARNING: Less than two connections to node output.  This node is used by r23.
Direct Newton iteration failed to find .op point.  (Use ".option noopiter" to skip.)
Starting Gmin stepping
Gmin = 10
Gmin = 1.07374
Gmin = 0.115292
Gmin = 0.0123794
Gmin = 0.00132923
vernier = 0.5
vernier = 0.25
vernier = 0.125
vernier = 0.0625
Gmin = 0.00100083
vernier = 0.03125
vernier = 0.015625
vernier = 0.0078125
vernier = 0.00390625
vernier = 0.00195312
Gmin = 0.00100083
vernier = 0.000976562
vernier = 0.000488281
Gmin = 0
Gmin stepping failed

Starting source stepping with srcstepmethod=0
Source Step = 3.0303%
Source Step = 33.3333%
Source Step = 63.6364%
Source Step = 93.9394%
Source stepping succeeded in finding the operating point.


Date: Sat Jun  3 12:25:19 2023
Total elapsed time: 2.579 seconds.

tnom = 27
temp = 27
method = modified trap
totiter = 39678
traniter = 37821
tranpoints = 13066
accept = 9552
rejected = 3514
matrix size = 117
fillins = 82
solver = Normal
Avg thread counts: 1.0/1.0/1.0/1.0
Matrix Compiler1: 10.35 KB object code size  8.7/6.1/[2.8]
Matrix Compiler2: 11.08 KB object code size  4.5/5.5/[3.5]

