Circuit: * C:\Users\Dmitr\OneDrive\Desktop\eib-drumcomputer\eib-drumcomputer\ltspice\Platine_2\claves\claves.asc

Warning: Multiple definitions of model "2scr375p" Type: BJT
Warning: Multiple definitions of model "bc857b" Type: BJT
Warning: Multiple definitions of model "bc847c" Type: BJT
Warning: Multiple definitions of model "bc847b" Type: BJT
WARNING: Less than two connections to node output.  This node is used by r15.
Direct Newton iteration for .op point succeeded.

Date: Thu Jun 22 11:31:12 2023
Total elapsed time: 0.293 seconds.

tnom = 27
temp = 27
method = modified trap
totiter = 6906
traniter = 6895
tranpoints = 3192
accept = 2474
rejected = 718
matrix size = 27
fillins = 6
solver = Normal
Avg thread counts: 1.0/1.1/1.1/1.0
Matrix Compiler1: 2.06 KB object code size  1.6/1.2/[0.7]
Matrix Compiler2: 2.27 KB object code size  0.9/1.3/[0.7]

