Circuit: * C:\Users\Dmitr\OneDrive\Desktop\eib-drumcomputer\eib-drumcomputer\ltspice\Platine_1\bass_drum\bass_drum.asc

Warning: Multiple definitions of model "2scr375p" Type: BJT
Warning: Multiple definitions of model "bc857b" Type: BJT
Warning: Multiple definitions of model "bc847c" Type: BJT
Warning: Multiple definitions of model "bc847b" Type: BJT
WARNING: Node N004 is floating.

WARNING: Less than two connections to node output.  This node is used by r15.
Direct Newton iteration for .op point succeeded.

Date: Thu Jun  1 22:26:02 2023
Total elapsed time: 0.263 seconds.

tnom = 27
temp = 27
method = modified trap
totiter = 2493
traniter = 2481
tranpoints = 1232
accept = 1188
rejected = 44
matrix size = 19
fillins = 2
solver = Normal
Avg thread counts: 1.1/1.2/1.2/1.1
Matrix Compiler1: 1.26 KB object code size  1.1/0.9/[0.6]
Matrix Compiler2: 1.50 KB object code size  0.9/1.0/[0.6]

