Circuit: * C:\Users\Dmitr\OneDrive\Desktop\eib-drumcomputer\eib-drumcomputer\ltspice\Platine_3\maracas\maracas.asc

Warning: Multiple definitions of model "2scr375p" Type: BJT
Warning: Multiple definitions of model "bc857b" Type: BJT
Warning: Multiple definitions of model "bc847c" Type: BJT
Warning: Multiple definitions of model "bc847b" Type: BJT
WARNING: Node OUTPUT is floating.

WARNING: Less than two connections to node output.  This node is used by r5.
WARNING: Less than two connections to node nc_01.  This node is used by r6.
Direct Newton iteration for .op point succeeded.

Date: Wed Jun  7 13:46:28 2023
Total elapsed time: 2.576 seconds.

tnom = 27
temp = 27
method = modified trap
totiter = 139206
traniter = 139190
tranpoints = 69323
accept = 48931
rejected = 20392
matrix size = 20
fillins = 5
solver = Normal
Avg thread counts: 1.0/1.0/1.0/1.0
Matrix Compiler1: 1.18 KB object code size  1.4/1.1/[0.5]
Matrix Compiler2: 1.50 KB object code size  0.8/0.9/[0.7]

