Circuit: * C:\Users\tjori\Documents\GitHub\eib-drumcomputer\ltspice\Platine_2\snare_drum_dry\snare_drum_dry.asc

Warning: Multiple definitions of model "2scr375p" Type: BJT
Warning: Multiple definitions of model "bc857b" Type: BJT
Warning: Multiple definitions of model "bc847c" Type: BJT
Warning: Multiple definitions of model "bc847b" Type: BJT
WARNING: Less than two connections to node output.  This node is used by r15.
Direct Newton iteration for .op point succeeded.

Date: Sun Jun 25 17:07:39 2023
Total elapsed time: 0.063 seconds.

tnom = 27
temp = 27
method = modified trap
totiter = 2530
traniter = 2518
tranpoints = 1252
accept = 1201
rejected = 51
matrix size = 27
fillins = 6
solver = Normal
Avg thread counts: 1.8/2.7/2.7/1.8
Matrix Compiler1:     117 opcodes  0.3/[0.1]/0.2
Matrix Compiler2: off  [0.1]/0.1/0.1

