Circuit: * C:\Users\Dmitr\OneDrive\Desktop\eib-drumcomputer\eib-drumcomputer\ltspice\Platine_2\snare_drum_dry\snare_drum_dry.asc

Warning: Multiple definitions of model "2scr375p" Type: BJT
Warning: Multiple definitions of model "bc857b" Type: BJT
Warning: Multiple definitions of model "bc847c" Type: BJT
Warning: Multiple definitions of model "bc847b" Type: BJT
WARNING: Less than two connections to node output.  This node is used by r15.
Direct Newton iteration for .op point succeeded.

Date: Wed Jun  7 10:03:43 2023
Total elapsed time: 0.367 seconds.

tnom = 27
temp = 27
method = modified trap
totiter = 2468
traniter = 2456
tranpoints = 1221
accept = 1184
rejected = 37
matrix size = 27
fillins = 6
solver = Normal
Avg thread counts: 1.1/1.2/1.2/1.1
Matrix Compiler1: 2.06 KB object code size  1.5/1.2/[0.8]
Matrix Compiler2: 2.27 KB object code size  1.1/1.6/[0.6]

