Circuit: * C:\Users\Dmitr\OneDrive\Desktop\eib-drumcomputer\eib-drumcomputer\ltspice\Platine_1\high_bongo\high_bongo.asc

Warning: Multiple definitions of model "2scr375p" Type: BJT
Warning: Multiple definitions of model "bc857b" Type: BJT
Warning: Multiple definitions of model "bc847c" Type: BJT
Warning: Multiple definitions of model "bc847b" Type: BJT
WARNING: Node N004 is floating.

WARNING: Less than two connections to node output.  This node is used by r15.
Direct Newton iteration for .op point succeeded.

Date: Tue May 16 14:59:05 2023
Total elapsed time: 0.180 seconds.

tnom = 27
temp = 27
method = modified trap
totiter = 2489
traniter = 2477
tranpoints = 1228
accept = 1185
rejected = 43
matrix size = 19
fillins = 2
solver = Normal
Avg thread counts: 1.1/1.2/1.2/1.1
Matrix Compiler1: 1.26 KB object code size  1.3/1.0/[0.7]
Matrix Compiler2: 1.50 KB object code size  1.0/1.1/[0.6]

