Circuit: * C:\Users\Dmitr\OneDrive\Desktop\SPICE\EIB_Drumcomputer\Bassdrum.asc

Warning: Multiple definitions of model "2scr375p" Type: BJT
Warning: Multiple definitions of model "bc857b" Type: BJT
Warning: Multiple definitions of model "bc847c" Type: BJT
Warning: Multiple definitions of model "bc847b" Type: BJT
Direct Newton iteration for .op point succeeded.

Date: Tue May  2 14:19:50 2023
Total elapsed time: 0.189 seconds.

tnom = 27
temp = 27
method = modified trap
totiter = 2764
traniter = 2729
tranpoints = 1332
accept = 1260
rejected = 72
matrix size = 27
fillins = 22
solver = Normal
Avg thread counts: 1.1/1.2/1.2/1.1
Matrix Compiler1: 3.20 KB object code size  2.8/1.4/[0.8]
Matrix Compiler2: 2.60 KB object code size  0.8/1.2/[0.7]

