Circuit: * C:\Users\Dmitr\OneDrive\Desktop\eib-drumcomputer\eib-drumcomputer\ltspice\Monostabiler Multivibrator\MONO_KIP.asc

Warning: Multiple definitions of model "2scr375p" Type: BJT
Warning: Multiple definitions of model "bc857b" Type: BJT
Warning: Multiple definitions of model "bc847c" Type: BJT
Warning: Multiple definitions of model "bc847b" Type: BJT
WARNING: Less than two connections to node m_cont..  This node is used by r10.
Direct Newton iteration for .op point succeeded.

Date: Wed May 31 18:08:59 2023
Total elapsed time: 0.152 seconds.

tnom = 27
temp = 27
method = modified trap
totiter = 3225
traniter = 3203
tranpoints = 1392
accept = 1329
rejected = 63
matrix size = 19
fillins = 0
solver = Normal
Avg thread counts: 1.1/1.2/1.2/1.1
Matrix Compiler1: 598 bytes object code size  0.6/0.5/[0.4]
Matrix Compiler2: 1.06 KB object code size  0.5/0.8/[0.5]

