Circuit: * C:\Users\Dmitr\OneDrive\Desktop\eib-drumcomputer\eib-drumcomputer\ltspice\Platine_3\maracas\maracas.asc

Warning: Multiple definitions of model "2scr375p" Type: BJT
Warning: Multiple definitions of model "bc857b" Type: BJT
Warning: Multiple definitions of model "bc847c" Type: BJT
Warning: Multiple definitions of model "bc847b" Type: BJT
WARNING: Node OUTPUT is floating.

WARNING: Less than two connections to node output.  This node is used by r5.
Direct Newton iteration for .op point succeeded.

Date: Thu Aug 31 12:55:07 2023
Total elapsed time: 2.965 seconds.

tnom = 27
temp = 27
method = modified trap
totiter = 137160
traniter = 137144
tranpoints = 68321
accept = 48004
rejected = 20317
matrix size = 19
fillins = 4
solver = Normal
Avg thread counts: 1.0/1.0/1.0/1.0
Matrix Compiler1: 1.15 KB object code size  2.1/1.2/[0.8]
Matrix Compiler2: 1.44 KB object code size  1.1/1.1/[0.9]

